/*--------------------------------*- C++ -*----------------------------------*\
| =========                 |                                                 |
| \\      /  F ield         | OpenFOAM: The Open Source CFD Toolbox           |
|  \\    /   O peration     | Version:  1.7.1                                 |
|   \\  /    A nd           | Web:      www.OpenFOAM.com                      |
|    \\/     M anipulation  |                                                 |
\*---------------------------------------------------------------------------*/
FoamFile
{
    version     2.0;
    format      ascii;
    class       dictionary;
    location    "system";
    object      fvSolution;
}
// * * * * * * * * * * * * * * * * * * * * * * * * * * * * * * * * * * * * * //

solvers
{
    p_rgh
    {
        solver          GAMG;
        tolerance       1e-08;
        relTol          0;
        smoother        DIC;
        nPreSweeps      0;
        nPostSweeps     2;
        nFinestSweeps   2;
        cacheAgglomeration true;
        nCellsInCoarsestLevel 10;
        agglomerator    faceAreaPair;
        mergeLevels     1;
    }

    p_rghFinal
    {
        $p_rgh;
        tolerance       1e-8;
        relTol          0;
    }

    "(alpha.a|pa|W|alphaPlastic)"
    {
        solver          PBiCG;
        preconditioner  DILU;
        tolerance       1e-10;
        relTol          0;
    }
    "(alpha.aFinal|paFinal|WFinal|alphaPlasticFinal)"
    {
        solver          PBiCG;
        preconditioner  DILU;
        tolerance       1e-10;
        relTol          0;
    }
    Theta
    {
        solver          PBiCG;
        preconditioner  DILU;
        tolerance       1e-6;
        relTol          0;
    }
    ThetaFinal
    {
        solver          PBiCG;
        preconditioner  DILU;
        tolerance       1e-6;
        relTol          0;
    }
}


PIMPLE
{
    momentumPredictor 0;
    nOuterCorrectors  1;
    nCorrectors     2;
    nNonOrthogonalCorrectors 0;
    correctAlpha    1;
    nAlphaCorr      1;
    pRefCell        0;
    pRefValue       0;
    faceMomentum    true;
}

relaxationFactors
{
    fields
    {
        p_rgh               0.3;
    }
    equations
    {
        U            0.7;
    }
}


// ************************************************************************* //
