/*--------------------------------*- C++ -*----------------------------------*\
| =========                 |                                                 |
| \\      /  F ield         | OpenFOAM: The Open Source CFD Toolbox           |
|  \\    /   O peration     | Version:  1.7.1                                 |
|   \\  /    A nd           | Web:      www.OpenFOAM.com                      |
|    \\/     M anipulation  |                                                 |
\*---------------------------------------------------------------------------*/
FoamFile
{
    version     2.0;
    format      ascii;
    class       dictionary;
    location    "system";
    object      fvSchemes;
}
// * * * * * * * * * * * * * * * * * * * * * * * * * * * * * * * * * * * * * //

ddtSchemes
{
    default         Euler implicit;
}

gradSchemes
{
        default         Gauss linear;
}

divSchemes
{
    default         none;
// alphaEqn
    div(phiAlpha,alpha) Gauss limitedLinear01 1;
    div(phia,alpha)  Gauss limitedLinear01 1;

    div(phi,alpha)  Gauss limitedLinear01 1;
    div(phir,alpha) Gauss limitedLinear01 1;
    div(phiWRel,WRel) Gauss linear;
    div(phiRel,RelMixPar) Gauss linear;
    div(phi,rho)  Gauss limitedLinear01 1;
    div(rhoPhi,U)  Gauss limitedLinearV 1;

// UEqn

    div(phi,U)    Gauss limitedLinearV 1;
    div(phi,Ua)    Gauss limitedLinearV 1;

    div(phia,Ua)    Gauss limitedLinearV 1;
    div(phib,Ub)    Gauss limitedLinearV 1;
    div(phiRb,Ub)    Gauss limitedLinearV 1;

// pEqn
    div(alpha,nu)   Gauss linear;
// alphaPlastic
    div(phi,alphaPlastic)  Gauss limitedLinear01 1;
    div(phia,alphaPlastic)  Gauss limitedLinear01 1;

// pa
    div(phi,pa_new_value)  Gauss limitedLinear 1;
    div(phia,pa_new_value)  Gauss limitedLinear 1;
    
//tau_Diffusion 
   div(tau_Diffusion)    Gauss  linear;
   div(tauTot)    Gauss  linear;
   div(tauTurb)    Gauss  linear;
}

laplacianSchemes
{
    default         none; 
// UEqn
    laplacian(nuEffa,U) Gauss linear corrected;
    laplacian(nuEffb,U) Gauss linear corrected;
    laplacian(nuEffb,Ub) Gauss linear corrected;

    laplacian(nuFra,U)  Gauss linear corrected;
    laplacian(nuEffTotal,U) Gauss linear corrected;
    laplacian(nut,U) Gauss linear corrected;
    laplacian(((rho*nuEffa)+(rho*nuEffb)),U)  Gauss linear corrected;
    laplacian(muEff,U) Gauss linear corrected;
    laplacian(muEff,Ua) Gauss linear corrected;

// pEqn
    laplacian((rho*(1|A(U))),p_rbgh) Gauss linear corrected;
}

interpolationSchemes
{
    default  linear;
}

snGradSchemes
{
    default         corrected;
}

fluxRequired
{
    default         no;
    p_rbgh               ;
}


// ************************************************************************* //
